8

 Pt                -0.12800000   -1.23190000   -0.37340000
 C                  1.33890000   -2.78060000   -0.21330000
 H                  0.75560000   -1.56890000   -1.50310000
 H                  1.32410000   -2.91860000    0.87420000
 H                  1.00120000   -3.70330000   -0.67800000
 H                  2.35360000   -2.54930000   -0.52040000
 He                 0.04020953   -1.52383741   -2.36385624
 He                -0.49471664   -0.85059787    1.32350432

