3,6
 OpenBabel03192121373D

 14 13  0  0  0  0  0  0  0  0999 V2000
    1.0993   -0.2524   -0.1268 C   0  0  0  0  0  0  0  0  0  0  0  0
    2.5646    0.0862   -0.1315 C   0  0  0  0  0  0  0  0  0  0  0  0
    2.9788    1.1762   -0.5147 O   0  0  0  0  0  0  0  0  0  0  0  0
    3.4804   -0.9435    0.3798 C   0  5  0  0  0  0  0  0  0  0  0  0
    4.9504   -0.8778    0.4003 C   0  0  0  0  0  0  0  0  0  0  0  0
    5.5458   -1.6016    1.1982 O   0  0  0  0  0  0  0  0  0  0  0  0
    5.6891    0.0264   -0.5451 C   0  0  0  0  0  0  0  0  0  0  0  0
    0.5488    0.4998   -0.6990 H   0  0  0  0  0  0  0  0  0  0  0  0
    0.7276   -0.2621    0.9013 H   0  0  0  0  0  0  0  0  0  0  0  0
    0.9353   -1.2260   -0.5972 H   0  0  0  0  0  0  0  0  0  0  0  0
    3.0458   -1.8092    0.8639 H   0  0  0  0  0  0  0  0  0  0  0  0
    5.0860    0.2845   -1.4177 H   0  0  0  0  0  0  0  0  0  0  0  0
    6.5692   -0.5078   -0.9164 H   0  0  0  0  0  0  0  0  0  0  0  0
    6.0030    0.9320   -0.0215 H   0  0  0  0  0  0  0  0  0  0  0  0
  1  2  1  0  0  0  0
  1  8  1  0  0  0  0
  1  9  1  0  0  0  0
  1 10  1  0  0  0  0
  2  3  2  0  0  0  0
  2  4  1  0  0  0  0
  4  5  1  0  0  0  0
  4 11  1  0  0  0  0
  5  6  2  0  0  0  0
  5  7  1  0  0  0  0
  7 12  1  0  0  0  0
  7 13  1  0  0  0  0
  7 14  1  0  0  0  0
M  CHG  1   4  -1
M  END
