3,8
 OpenBabel03112112473D

 20 21  0  0  0  0  0  0  0  0999 V2000
   -0.5864   -1.1986    0.0282 C   0  0  0  0  0  0  0  0  0  0  0  0
   -1.3228   -2.4850    0.0941 C   0  0  0  0  0  0  0  0  0  0  0  0
   -0.5739   -3.6249    0.0722 N   0  0  0  0  0  0  0  0  0  0  0  0
   -1.2193   -4.8092    0.1613 C   0  0  0  0  0  0  0  0  0  0  0  0
   -2.5915   -4.9344    0.2754 C   0  0  0  0  0  0  0  0  0  0  0  0
   -3.3530   -3.7748    0.2910 C   0  0  0  0  0  0  0  0  0  0  0  0
   -2.7148   -2.5391    0.1970 C   0  0  0  0  0  0  0  0  0  0  0  0
   -1.3363   -0.0596    0.0276 N   0  0  0  0  0  0  0  0  0  0  0  0
   -0.6882    1.1263   -0.0020 C   0  0  0  0  0  0  0  0  0  0  0  0
    0.6888    1.2534   -0.0307 C   0  0  0  0  0  0  0  0  0  0  0  0
    1.4500    0.0942   -0.0370 C   0  0  0  0  0  0  0  0  0  0  0  0
    0.8092   -1.1432   -0.0103 C   0  0  0  0  0  0  0  0  0  0  0  0
   -0.5783   -5.6862    0.1415 H   0  0  0  0  0  0  0  0  0  0  0  0
   -3.0556   -5.9111    0.3513 H   0  0  0  0  0  0  0  0  0  0  0  0
   -4.4341   -3.8250    0.3801 H   0  0  0  0  0  0  0  0  0  0  0  0
   -3.3016   -1.6248    0.2128 H   0  0  0  0  0  0  0  0  0  0  0  0
   -1.3297    2.0028    0.0015 H   0  0  0  0  0  0  0  0  0  0  0  0
    1.1556    2.2314   -0.0462 H   0  0  0  0  0  0  0  0  0  0  0  0
    2.5349    0.1457   -0.0579 H   0  0  0  0  0  0  0  0  0  0  0  0
    1.3963   -2.0572   -0.0100 H   0  0  0  0  0  0  0  0  0  0  0  0
  1  2  1  0  0  0  0
  1  8  2  0  0  0  0
  1 12  1  0  0  0  0
  2  3  2  0  0  0  0
  2  7  1  0  0  0  0
  3  4  1  0  0  0  0
  4  5  2  0  0  0  0
  4 13  1  0  0  0  0
  5  6  1  0  0  0  0
  5 14  1  0  0  0  0
  6  7  2  0  0  0  0
  6 15  1  0  0  0  0
  7 16  1  0  0  0  0
  8  9  1  0  0  0  0
  9 10  2  0  0  0  0
  9 17  1  0  0  0  0
 10 11  1  0  0  0  0
 10 18  1  0  0  0  0
 11 12  2  0  0  0  0
 11 19  1  0  0  0  0
 12 20  1  0  0  0  0
M  END
