2,5
 OpenBabel03112112473D

 24 23  0  0  0  0  0  0  0  0999 V2000
    3.4849    1.4020    0.4450 C   0  0  0  0  0  0  0  0  0  0  0  0
    2.8622   -0.3095    0.1964 P   0  0  0  0  0  0  0  0  0  0  0  0
    3.3690   -0.5910   -1.5708 C   0  0  0  0  0  0  0  0  0  0  0  0
    2.9461   -1.9715   -2.0702 C   0  0  0  0  0  0  0  0  0  0  0  0
    3.4473   -2.2525   -3.8397 P   0  0  0  0  0  0  0  0  0  0  0  0
    2.8228   -3.9624   -4.0889 C   0  0  0  0  0  0  0  0  0  0  0  0
    2.1043   -1.3205   -4.6836 C   0  0  0  0  0  0  0  0  0  0  0  0
    4.2049   -1.2395    1.0415 C   0  0  0  0  0  0  0  0  0  0  0  0
    2.8711    2.1175   -0.1099 H   0  0  0  0  0  0  0  0  0  0  0  0
    4.5229    1.5154    0.1154 H   0  0  0  0  0  0  0  0  0  0  0  0
    3.4368    1.6718    1.5063 H   0  0  0  0  0  0  0  0  0  0  0  0
    4.4496   -0.4637   -1.6518 H   0  0  0  0  0  0  0  0  0  0  0  0
    2.9073    0.1951   -2.1881 H   0  0  0  0  0  0  0  0  0  0  0  0
    1.8610   -2.0995   -1.9893 H   0  0  0  0  0  0  0  0  0  0  0  0
    3.4052   -2.7569   -1.4560 H   0  0  0  0  0  0  0  0  0  0  0  0
    3.4367   -4.6795   -3.5350 H   0  0  0  0  0  0  0  0  0  0  0  0
    2.8704   -4.2322   -5.1504 H   0  0  0  0  0  0  0  0  0  0  0  0
    1.7852   -4.0758   -3.7587 H   0  0  0  0  0  0  0  0  0  0  0  0
    2.2178   -0.2462   -4.5102 H   0  0  0  0  0  0  0  0  0  0  0  0
    1.1120   -1.6179   -4.3247 H   0  0  0  0  0  0  0  0  0  0  0  0
    2.1400   -1.4922   -5.7632 H   0  0  0  0  0  0  0  0  0  0  0  0
    4.1692   -1.0675    2.1211 H   0  0  0  0  0  0  0  0  0  0  0  0
    5.1973   -0.9416    0.6835 H   0  0  0  0  0  0  0  0  0  0  0  0
    4.0929   -2.3144    0.8692 H   0  0  0  0  0  0  0  0  0  0  0  0
  1  2  1  0  0  0  0
  1  9  1  0  0  0  0
  1 10  1  0  0  0  0
  1 11  1  0  0  0  0
  2  3  1  0  0  0  0
  2  8  1  0  0  0  0
  3  4  1  0  0  0  0
  3 12  1  0  0  0  0
  3 13  1  0  0  0  0
  4  5  1  0  0  0  0
  4 14  1  0  0  0  0
  4 15  1  0  0  0  0
  5  6  1  0  0  0  0
  5  7  1  0  0  0  0
  6 16  1  0  0  0  0
  6 17  1  0  0  0  0
  6 18  1  0  0  0  0
  7 19  1  0  0  0  0
  7 20  1  0  0  0  0
  7 21  1  0  0  0  0
  8 22  1  0  0  0  0
  8 23  1  0  0  0  0
  8 24  1  0  0  0  0
M  END
