1
 OpenBabel03112112443D

 13 12  0  0  0  0  0  0  0  0999 V2000
    1.0372   -0.0616   -0.0957 N   0  0  0  0  0  0  0  0  0  0  0  0
    0.5382   -0.5039   -1.3974 C   0  0  0  0  0  0  0  0  0  0  0  0
    0.5381   -0.9349    0.9659 C   0  0  0  0  0  0  0  0  0  0  0  0
    2.4994   -0.0371   -0.0913 C   0  0  0  0  0  0  0  0  0  0  0  0
   -0.5572   -0.4841   -1.4164 H   0  0  0  0  0  0  0  0  0  0  0  0
    0.8691   -1.5190   -1.6454 H   0  0  0  0  0  0  0  0  0  0  0  0
    0.8777    0.1727   -2.1896 H   0  0  0  0  0  0  0  0  0  0  0  0
   -0.5573   -0.9232    0.9906 H   0  0  0  0  0  0  0  0  0  0  0  0
    0.8777   -0.5816    1.9461 H   0  0  0  0  0  0  0  0  0  0  0  0
    0.8691   -1.9723    0.8397 H   0  0  0  0  0  0  0  0  0  0  0  0
    2.8750    0.6481   -0.8595 H   0  0  0  0  0  0  0  0  0  0  0  0
    2.9316   -1.0281   -0.2721 H   0  0  0  0  0  0  0  0  0  0  0  0
    2.8751    0.3327    0.8694 H   0  0  0  0  0  0  0  0  0  0  0  0
  1  2  1  0  0  0  0
  1  3  1  0  0  0  0
  1  4  1  0  0  0  0
  2  5  1  0  0  0  0
  2  6  1  0  0  0  0
  2  7  1  0  0  0  0
  3  8  1  0  0  0  0
  3  9  1  0  0  0  0
  3 10  1  0  0  0  0
  4 11  1  0  0  0  0
  4 12  1  0  0  0  0
  4 13  1  0  0  0  0
M  END
