1,4,19
 OpenBabel03112112493D

 70 74  0  0  0  0  0  0  0  0999 V2000
    0.8909   -0.1363   -0.2094 P   0  0  0  0  0  0  0  0  0  0  0  0
    0.3819   -0.8945    1.4180 C   0  0  0  0  0  0  0  0  0  0  0  0
   -1.1419   -0.8787    1.6438 C   0  0  0  0  0  0  0  0  0  0  0  0
   -1.6238   -1.7881    3.1925 P   0  0  0  0  0  0  0  0  0  0  0  0
   -3.4410   -1.6566    3.1642 C   0  0  0  0  0  0  0  0  0  0  0  0
   -4.2934   -2.6594    2.6854 C   0  0  0  0  0  0  0  0  0  0  0  0
   -5.6856   -2.5202    2.7533 C   0  0  0  0  0  0  0  0  0  0  0  0
   -6.2541   -1.3770    3.3073 C   0  0  0  0  0  0  0  0  0  0  0  0
   -5.4291   -0.3664    3.7892 C   0  0  0  0  0  0  0  0  0  0  0  0
   -4.0370   -0.5063    3.7157 C   0  0  0  0  0  0  0  0  0  0  0  0
   -1.2143   -3.5141    2.7820 C   0  0  0  0  0  0  0  0  0  0  0  0
   -0.7877   -4.3664    3.8122 C   0  0  0  0  0  0  0  0  0  0  0  0
   -0.2469   -5.6238    3.5233 C   0  0  0  0  0  0  0  0  0  0  0  0
   -0.1318   -6.0495    2.2021 C   0  0  0  0  0  0  0  0  0  0  0  0
   -0.6107   -5.2462    1.1744 C   0  0  0  0  0  0  0  0  0  0  0  0
   -1.1627   -3.9972    1.4647 C   0  0  0  0  0  0  0  0  0  0  0  0
    0.3518    1.6077    0.0819 C   0  0  0  0  0  0  0  0  0  0  0  0
    0.6618    2.5461   -1.0873 C   0  0  0  0  0  0  0  0  0  0  0  0
    0.0542    4.2547   -0.7099 P   0  0  0  0  0  0  0  0  0  0  0  0
    0.5340    5.1736   -2.1956 C   0  0  0  0  0  0  0  0  0  0  0  0
    0.0638    4.8962   -3.4861 C   0  0  0  0  0  0  0  0  0  0  0  0
    0.5238    5.6286   -4.5859 C   0  0  0  0  0  0  0  0  0  0  0  0
    1.4569    6.6471   -4.4164 C   0  0  0  0  0  0  0  0  0  0  0  0
    1.9285    6.9438   -3.1423 C   0  0  0  0  0  0  0  0  0  0  0  0
    1.4708    6.2106   -2.0429 C   0  0  0  0  0  0  0  0  0  0  0  0
   -1.7594    4.1316   -0.8013 C   0  0  0  0  0  0  0  0  0  0  0  0
   -2.5114    5.0384   -0.0346 C   0  0  0  0  0  0  0  0  0  0  0  0
   -3.9044    4.9407    0.0451 C   0  0  0  0  0  0  0  0  0  0  0  0
   -4.5728    3.9344   -0.6443 C   0  0  0  0  0  0  0  0  0  0  0  0
   -3.8496    3.0379   -1.4247 C   0  0  0  0  0  0  0  0  0  0  0  0
   -2.4562    3.1392   -1.5056 C   0  0  0  0  0  0  0  0  0  0  0  0
    2.7076   -0.0392   -0.0172 C   0  0  0  0  0  0  0  0  0  0  0  0
    3.5228   -0.7157   -0.9382 C   0  0  0  0  0  0  0  0  0  0  0  0
    4.9183   -0.6643   -0.8432 C   0  0  0  0  0  0  0  0  0  0  0  0
    5.5225    0.0699    0.1733 C   0  0  0  0  0  0  0  0  0  0  0  0
    4.7308    0.7467    1.0957 C   0  0  0  0  0  0  0  0  0  0  0  0
    3.3358    0.6882    1.0038 C   0  0  0  0  0  0  0  0  0  0  0  0
    0.8791   -0.3745    2.2458 H   0  0  0  0  0  0  0  0  0  0  0  0
    0.7682   -1.9172    1.4096 H   0  0  0  0  0  0  0  0  0  0  0  0
   -1.6751   -1.2768    0.7739 H   0  0  0  0  0  0  0  0  0  0  0  0
   -1.4888    0.1535    1.7622 H   0  0  0  0  0  0  0  0  0  0  0  0
   -3.8979   -3.5799    2.2641 H   0  0  0  0  0  0  0  0  0  0  0  0
   -6.3222   -3.3191    2.3811 H   0  0  0  0  0  0  0  0  0  0  0  0
   -7.3352   -1.2799    3.3734 H   0  0  0  0  0  0  0  0  0  0  0  0
   -5.8641    0.5253    4.2355 H   0  0  0  0  0  0  0  0  0  0  0  0
   -3.4214    0.2964    4.1173 H   0  0  0  0  0  0  0  0  0  0  0  0
   -0.8340   -4.0459    4.8515 H   0  0  0  0  0  0  0  0  0  0  0  0
    0.1145   -6.2565    4.3290 H   0  0  0  0  0  0  0  0  0  0  0  0
    0.3354   -7.0035    1.9726 H   0  0  0  0  0  0  0  0  0  0  0  0
   -0.5271   -5.5695    0.1404 H   0  0  0  0  0  0  0  0  0  0  0  0
   -1.5135   -3.3989    0.6311 H   0  0  0  0  0  0  0  0  0  0  0  0
    0.7813    1.9937    1.0125 H   0  0  0  0  0  0  0  0  0  0  0  0
   -0.7310    1.5782    0.2383 H   0  0  0  0  0  0  0  0  0  0  0  0
    0.2361    2.1633   -2.0211 H   0  0  0  0  0  0  0  0  0  0  0  0
    1.7454    2.5993   -1.2453 H   0  0  0  0  0  0  0  0  0  0  0  0
   -0.6616    4.1061   -3.6574 H   0  0  0  0  0  0  0  0  0  0  0  0
    0.1517    5.3972   -5.5833 H   0  0  0  0  0  0  0  0  0  0  0  0
    1.8145    7.2096   -5.2742 H   0  0  0  0  0  0  0  0  0  0  0  0
    2.6583    7.7384   -3.0006 H   0  0  0  0  0  0  0  0  0  0  0  0
    1.8634    6.4578   -1.0577 H   0  0  0  0  0  0  0  0  0  0  0  0
   -2.0153    5.8246    0.5319 H   0  0  0  0  0  0  0  0  0  0  0  0
   -4.4627    5.6443    0.6571 H   0  0  0  0  0  0  0  0  0  0  0  0
   -5.6536    3.8466   -0.5715 H   0  0  0  0  0  0  0  0  0  0  0  0
   -4.3672    2.2480   -1.9632 H   0  0  0  0  0  0  0  0  0  0  0  0
   -1.9354    2.4099   -2.1181 H   0  0  0  0  0  0  0  0  0  0  0  0
    3.0802   -1.2946   -1.7470 H   0  0  0  0  0  0  0  0  0  0  0  0
    5.5322   -1.1971   -1.5649 H   0  0  0  0  0  0  0  0  0  0  0  0
    6.6058    0.1131    0.2463 H   0  0  0  0  0  0  0  0  0  0  0  0
    5.1967    1.3231    1.8911 H   0  0  0  0  0  0  0  0  0  0  0  0
    2.7552    1.2235    1.7491 H   0  0  0  0  0  0  0  0  0  0  0  0
  1  2  1  0  0  0  0
  1 17  1  0  0  0  0
  1 32  1  0  0  0  0
  2  3  1  0  0  0  0
  2 38  1  0  0  0  0
  2 39  1  0  0  0  0
  3  4  1  0  0  0  0
  3 40  1  0  0  0  0
  3 41  1  0  0  0  0
  4  5  1  0  0  0  0
  4 11  1  0  0  0  0
  5  6  2  0  0  0  0
  5 10  1  0  0  0  0
  6  7  1  0  0  0  0
  6 42  1  0  0  0  0
  7  8  2  0  0  0  0
  7 43  1  0  0  0  0
  8  9  1  0  0  0  0
  8 44  1  0  0  0  0
  9 10  2  0  0  0  0
  9 45  1  0  0  0  0
 10 46  1  0  0  0  0
 11 12  2  0  0  0  0
 11 16  1  0  0  0  0
 12 13  1  0  0  0  0
 12 47  1  0  0  0  0
 13 14  2  0  0  0  0
 13 48  1  0  0  0  0
 14 15  1  0  0  0  0
 14 49  1  0  0  0  0
 15 16  2  0  0  0  0
 15 50  1  0  0  0  0
 16 51  1  0  0  0  0
 17 18  1  0  0  0  0
 17 52  1  0  0  0  0
 17 53  1  0  0  0  0
 18 19  1  0  0  0  0
 18 54  1  0  0  0  0
 18 55  1  0  0  0  0
 19 20  1  0  0  0  0
 19 26  1  0  0  0  0
 20 21  2  0  0  0  0
 20 25  1  0  0  0  0
 21 22  1  0  0  0  0
 21 56  1  0  0  0  0
 22 23  2  0  0  0  0
 22 57  1  0  0  0  0
 23 24  1  0  0  0  0
 23 58  1  0  0  0  0
 24 25  2  0  0  0  0
 24 59  1  0  0  0  0
 25 60  1  0  0  0  0
 26 27  2  0  0  0  0
 26 31  1  0  0  0  0
 27 28  1  0  0  0  0
 27 61  1  0  0  0  0
 28 29  2  0  0  0  0
 28 62  1  0  0  0  0
 29 30  1  0  0  0  0
 29 63  1  0  0  0  0
 30 31  2  0  0  0  0
 30 64  1  0  0  0  0
 31 65  1  0  0  0  0
 32 33  2  0  0  0  0
 32 37  1  0  0  0  0
 33 34  1  0  0  0  0
 33 66  1  0  0  0  0
 34 35  2  0  0  0  0
 34 67  1  0  0  0  0
 35 36  1  0  0  0  0
 35 68  1  0  0  0  0
 36 37  2  0  0  0  0
 36 69  1  0  0  0  0
 37 70  1  0  0  0  0
M  END
